
Actelion Java MolfileCreator 1.0

 33 36  0  0  1  0  0  0  0  0999 V2000
   15.0787  -19.6505   -0.1029 C   0  0  0  0  0  0  0  0  0  0  0  0
   15.4715  -20.8954    0.5963 C   0  0  0  0  0  0  0  0  0  0  0  0
   16.2383  -21.7196   -0.1223 C   0  0  0  0  0  0  0  0  0  0  0  0
   16.3405  -21.1129   -1.4454 C   0  0  0  0  0  0  0  0  0  0  0  0
   15.6445  -19.9642   -1.4698 C   0  0  0  0  0  0  0  0  0  0  0  0
   13.5799  -19.6187    0.2465 C   0  0  0  0  0  0  0  0  0  0  0  0
   13.4306  -20.4971    1.5290 C   0  0  0  0  0  0  0  0  0  0  0  0
   14.8304  -21.0202    1.9287 C   0  0  0  0  0  0  0  0  0  0  0  0
   15.6781  -18.4182    0.5031 C   0  0  0  0  0  0  0  0  0  0  0  0
   14.6217  -17.4864    1.0198 C   0  0  0  0  0  0  0  0  0  0  0  0
   13.3207  -18.1218    0.4925 C   0  0  0  0  0  0  0  0  0  0  0  0
   12.9697  -17.6222   -0.9161 C   0  0  0  0  0  0  0  0  0  0  0  0
   12.0785  -18.7322   -1.4787 C   0  0  0  0  0  0  0  0  0  0  0  0
   12.6295  -20.0414   -0.8952 C   0  0  0  0  0  0  0  0  0  0  0  0
   16.8767  -18.1960    0.5607 O   0  0  0  0  0  0  0  0  0  0  0  0
   14.6389  -17.4397    2.4985 N   0  0  0  0  0  0  0  0  0  0  0  0
   14.7563  -16.4921    0.6171 H   0  0  0  0  0  0  0  0  0  0  0  0
   13.9201  -16.7983    2.8441 H   0  0  0  0  0  0
   14.5089  -18.3693    2.9046 H   0  0  0  0  0  0
   11.8088  -20.6285   -0.5077 H   0  0  0  0  0  0
   13.1543  -20.6068   -1.6515 H   0  0  0  0  0  0
   11.0644  -18.5858   -1.1339 H   0  0  0  0  0  0
   12.1079  -18.7431   -2.5590 H   0  0  0  0  0  0
   12.4484  -16.6762   -0.8804 H   0  0  0  0  0  0
   13.8648  -17.5369   -1.5170 H   0  0  0  0  0  0
   12.4880  -17.9676    1.1649 H   0  0  0  0  0  0
   15.3080  -20.3683    2.6460 H   0  0  0  0  0  0
   14.7988  -22.0439    2.2737 H   0  0  0  0  0  0
   12.9998  -19.9258    2.3392 H   0  0  0  0  0  0
   12.7952  -21.3443    1.3116 H   0  0  0  0  0  0
   15.5216  -19.3427   -2.3184 H   0  0  0  0  0  0
   16.8619  -21.5310   -2.2669 H   0  0  0  0  0  0
   16.6360  -22.6496    0.1914 H   0  0  0  0  0  0
  1  2  1  0  0  0  0
  2  3  2  0  0  0  0
  3  4  1  0  0  0  0
  4  5  2  0  0  0  0
  5  1  1  0  0  0  0
  1  6  1  0  0  0  0
  6  7  1  0  0  0  0
  7  8  1  0  0  0  0
  8  2  1  0  0  0  0
  1  9  1  0  0  0  0
  9 10  1  0  0  0  0
 10 11  1  0  0  0  0
 11  6  1  0  0  0  0
 11 12  1  0  0  0  0
 12 13  1  0  0  0  0
 13 14  1  0  0  0  0
 14  6  1  0  0  0  0
  9 15  2  0  0  0  0
 10 16  1  1  0  0  0
 10 17  1  6  0  0  0
 16 18  1  0  0  0
 16 19  1  0  0  0
 14 20  1  0  0  0
 14 21  1  0  0  0
 13 22  1  0  0  0
 13 23  1  0  0  0
 12 24  1  0  0  0
 12 25  1  0  0  0
 11 26  1  0  0  0
  8 27  1  0  0  0
  8 28  1  0  0  0
  7 29  1  0  0  0
  7 30  1  0  0  0
  5 31  1  0  0  0
  4 32  1  0  0  0
  3 33  1  0  0  0
M  END
$$$$
